/*--------------------------------*- C++ -*----------------------------------*\
| =========                 |                                                 |
| \\      /  F ield         | OpenFOAM: The Open Source CFD Toolbox           |
|  \\    /   O peration     | Version:  v2306                                 |
|   \\  /    A nd           | Website:  www.openfoam.com                      |
|    \\/     M anipulation  |                                                 |
\*---------------------------------------------------------------------------*/
FoamFile
{
    version     2.0;
    format      ascii;
    class       dictionary;
    object      blockMeshDict;
}
// * * * * * * * * * * * * * * * * * * * * * * * * * * * * * * * * * * * * * //

scale   1;

vertices
(
    (1.5 -0.5 0.6001)
    (2.5 -0.5 0.6001)
    (2.5 0.5 0.6001)
    (1.5 0.5 0.6001)
    (1.5 -0.5 0.625)
    (2.5 -0.5 0.625)
    (2.5 0.5 0.625)
    (1.5 0.5 0.625)
);

blocks
(
    hex (0 1 2 3 4 5 6 7) (50 50 1) simpleGrading (1 1 1)
);

edges
(
);

boundary
(
    Empty
    {
        type empty;
        faces
        (
            (0 3 2 1)
            (1 5 4 0)        
            (3 7 6 2) 
            (4 5 6 7)
            (0 4 7 3)
            (2 6 5 1)  
        );
    }
);

mergePatchPairs
(
);


// ************************************************************************* //
