/*--------------------------------*- C++ -*----------------------------------*\
| =========                 |                                                 |
| \\      /  F ield         | OpenFOAM: The Open Source CFD Toolbox           |
|  \\    /   O peration     | Version:  v2006                                 |
|   \\  /    A nd           | Website:  www.openfoam.com                      |
|    \\/     M anipulation  |                                                 |
\*---------------------------------------------------------------------------*/
FoamFile
{
    version     2.0;
    format      ascii;
    class       dictionary;
    object      setSWDict;
}
// * * * * * * * * * * * * * * * * * * * * * * * * * * * * * * * * * * * * * //

mode dict; //triSurface

initialh0    0;

slope
{
    slope1
    {
        startPosition   (-2 0 0);
        direction       (1 0 0);
        slope    0.2;        
        
        baseh0   0;
    }
    
    slope2
    {
        startPosition   (1 0 0);
        direction       (1 0 0);
        slope    0;        
        
        baseh0   0.6;
    }
}

//triSurface topo.stl;
//checkLength 100; //default: 100

depth     0.0;


// ************************************************************************* //
