/*--------------------------------*- C++ -*----------------------------------*\
| =========                 |                                                 |
| \\      /  F ield         | OpenFOAM: The Open Source CFD Toolbox           |
|  \\    /   O peration     | Version:  v2306                                 |
|   \\  /    A nd           | Website:  www.openfoam.com                      |
|    \\/     M anipulation  |                                                 |
\*---------------------------------------------------------------------------*/
FoamFile
{
    version     2.0;
    format      ascii;
    class       dictionary;
    object      nestingProperties;
}
// * * * * * * * * * * * * * * * * * * * * * * * * * * * * * * * * * * * * * //


SWFluidConnectors
{
	connect1
	{
		mode fixed;
		
		SWRegion       flume2D;
		fluidRegion    wavePaddle;
		
		fluidPatch   outlet;		
	}
	
	connect2
	{
		mode fixed;
		
		SWRegion       flume2D;
		fluidRegion    floatingBreakwater;
		
		fluidPatch   inletOutlet;		
	}
	
	connect2
	{
		mode fixed;
		
		SWRegion       flume2D;
		fluidRegion    offshoreBreakwater;
		
		fluidPatch   inletOutlet;		
	}
}

fluidLaplacianConnectors
{
}

